<?xml version="1.0" encoding="UTF-8"?>

<!-- generated on 2025-09-06 14:49:27 by Eclipse SUMO netconvert Version 1.24.0
<netconvertConfiguration xmlns:xsi="http://www.w3.org/2001/XMLSchema-instance" xsi:noNamespaceSchemaLocation="http://sumo.dlr.de/xsd/netconvertConfiguration.xsd">

    <input>
        <node-files value="nodes.xml"/>
        <edge-files value="edges.xml"/>
    </input>

    <output>
        <output-file value="output.net.xml"/>
    </output>

</netconvertConfiguration>
-->

<net version="1.20" junctionCornerDetail="5" limitTurnSpeed="5.50" xmlns:xsi="http://www.w3.org/2001/XMLSchema-instance" xsi:noNamespaceSchemaLocation="http://sumo.dlr.de/xsd/net_file.xsd">

    <location netOffset="20.00,0.00" convBoundary="0.00,0.00,220.00,220.00" origBoundary="-20.00,0.00,200.00,220.00" projParameter="!"/>

    <edge id=":A_0" function="internal">
        <lane id=":A_0_0" index="0" speed="9.45" length="15.00" width="7.00" shape="16.00,-3.50 31.00,-3.50"/>
    </edge>
    <edge id=":A_1" function="internal">
        <lane id=":A_1_0" index="0" speed="7.77" length="12.10" width="7.00" shape="16.00,-3.50 19.28,-3.03 21.62,-1.62 23.03,0.72 23.50,4.00"/>
    </edge>
    <edge id=":B_0" function="internal">
        <lane id=":B_0_0" index="0" speed="13.89" length="15.00" width="7.00" shape="116.00,-3.50 131.00,-3.50"/>
    </edge>
    <edge id=":B_1" function="internal">
        <lane id=":B_1_0" index="0" speed="7.77" length="12.10" width="7.00" shape="116.00,-3.50 119.28,-3.03 121.62,-1.63 123.03,0.72 123.50,4.00"/>
    </edge>
    <edge id=":C_0" function="internal">
        <lane id=":C_0_0" index="0" speed="5.77" length="5.64" width="7.00" shape="220.00,-3.50 221.53,-3.28 222.62,-2.63 223.28,-1.53 223.50,0.00"/>
    </edge>
    <edge id=":D_0" function="internal">
        <lane id=":D_0_0" index="0" speed="7.77" length="12.10" width="7.00" shape="23.50,89.00 23.97,92.28 25.38,94.62 27.72,96.03 31.00,96.50"/>
    </edge>
    <edge id=":D_1" function="internal">
        <lane id=":D_1_0" index="0" speed="13.89" length="15.00" width="7.00" shape="23.50,89.00 23.50,104.00"/>
    </edge>
    <edge id=":D_2" function="internal">
        <lane id=":D_2_0" index="0" speed="9.45" length="15.00" width="7.00" shape="16.00,96.50 31.00,96.50"/>
    </edge>
    <edge id=":D_3" function="internal">
        <lane id=":D_3_0" index="0" speed="7.77" length="3.98" width="7.00" shape="16.00,96.50 19.28,96.97 19.85,97.31"/>
    </edge>
    <edge id=":D_4" function="internal">
        <lane id=":D_4_0" index="0" speed="7.77" length="8.12" width="7.00" shape="19.85,97.31 21.62,98.38 23.03,100.72 23.50,104.00"/>
    </edge>
    <edge id=":E_0" function="internal">
        <lane id=":E_0_0" index="0" speed="7.77" length="12.10" width="7.00" shape="123.50,89.00 123.97,92.28 125.38,94.62 127.72,96.03 131.00,96.50"/>
    </edge>
    <edge id=":E_1" function="internal">
        <lane id=":E_1_0" index="0" speed="13.89" length="15.00" width="7.00" shape="123.50,89.00 123.50,104.00"/>
    </edge>
    <edge id=":E_2" function="internal">
        <lane id=":E_2_0" index="0" speed="13.89" length="15.00" width="7.00" shape="116.00,96.50 131.00,96.50"/>
    </edge>
    <edge id=":E_3" function="internal">
        <lane id=":E_3_0" index="0" speed="7.77" length="3.98" width="7.00" shape="116.00,96.50 119.28,96.97 119.85,97.31"/>
    </edge>
    <edge id=":E_4" function="internal">
        <lane id=":E_4_0" index="0" speed="7.77" length="8.12" width="7.00" shape="119.85,97.31 121.62,98.38 123.03,100.72 123.50,104.00"/>
    </edge>
    <edge id=":F_0" function="internal">
        <lane id=":F_0_0" index="0" speed="13.89" length="15.00" width="7.00" shape="223.50,89.00 223.50,104.00"/>
    </edge>
    <edge id=":F_1" function="internal">
        <lane id=":F_1_0" index="0" speed="7.77" length="3.98" width="7.00" shape="216.00,96.50 219.28,96.97 219.85,97.31"/>
    </edge>
    <edge id=":F_2" function="internal">
        <lane id=":F_2_0" index="0" speed="7.77" length="8.12" width="7.00" shape="219.85,97.31 221.62,98.38 223.03,100.72 223.50,104.00"/>
    </edge>
    <edge id=":G_0" function="internal">
        <lane id=":G_0_0" index="0" speed="5.77" length="5.64" width="7.00" shape="23.50,193.00 23.72,194.53 24.38,195.62 25.47,196.28 27.00,196.50"/>
    </edge>
    <edge id=":H_0" function="internal">
        <lane id=":H_0_0" index="0" speed="9.26" length="10.12" width="7.00" shape="116.50,204.00 117.41,200.72 120.12,198.38 123.11,197.45"/>
    </edge>
    <edge id=":H_3" function="internal">
        <lane id=":H_3_0" index="0" speed="9.26" length="7.98" width="7.00" shape="123.11,197.45 124.66,196.97 131.00,196.50"/>
    </edge>
    <edge id=":H_1" function="internal">
        <lane id=":H_1_0" index="0" speed="7.77" length="12.10" width="7.00" shape="123.50,189.00 123.97,192.28 125.38,194.62 127.72,196.03 131.00,196.50"/>
    </edge>
    <edge id=":H_2" function="internal">
        <lane id=":H_2_0" index="0" speed="13.89" length="22.00" width="7.00" shape="109.00,196.50 131.00,196.50"/>
    </edge>

    <edge id="A_B" from="A" to="B" priority="-1">
        <lane id="A_B_0" index="0" speed="13.89" length="85.00" width="7.00" shape="31.00,-3.50 116.00,-3.50"/>
    </edge>
    <edge id="A_B_parking" from="A_parking" to="A" priority="-1">
        <lane id="A_B_parking_0" index="0" speed="5.00" length="16.00" width="7.00" shape="0.00,-3.50 16.00,-3.50"/>
    </edge>
    <edge id="A_D" from="A" to="D" priority="-1">
        <lane id="A_D_0" index="0" speed="13.89" length="85.00" width="7.00" shape="23.50,4.00 23.50,89.00"/>
    </edge>
    <edge id="B_C" from="B" to="C" priority="-1">
        <lane id="B_C_0" index="0" speed="13.89" length="89.00" width="7.00" shape="131.00,-3.50 220.00,-3.50"/>
    </edge>
    <edge id="B_E" from="B" to="E" priority="-1">
        <lane id="B_E_0" index="0" speed="13.89" length="85.00" width="7.00" shape="123.50,4.00 123.50,89.00"/>
    </edge>
    <edge id="C_F" from="C" to="F" priority="-1">
        <lane id="C_F_0" index="0" speed="13.89" length="89.00" width="7.00" shape="223.50,0.00 223.50,89.00"/>
    </edge>
    <edge id="D_E" from="D" to="E" priority="-1">
        <lane id="D_E_0" index="0" speed="13.89" length="85.00" width="7.00" shape="31.00,96.50 116.00,96.50"/>
    </edge>
    <edge id="D_G" from="D" to="G" priority="-1">
        <lane id="D_G_0" index="0" speed="13.89" length="89.00" width="7.00" shape="23.50,104.00 23.50,193.00"/>
    </edge>
    <edge id="D_G_parking" from="D_parking" to="D" priority="-1">
        <lane id="D_G_parking_0" index="0" speed="5.00" length="16.00" width="7.00" shape="0.00,96.50 16.00,96.50"/>
    </edge>
    <edge id="E_F" from="E" to="F" priority="-1">
        <lane id="E_F_0" index="0" speed="13.89" length="85.00" width="7.00" shape="131.00,96.50 216.00,96.50"/>
    </edge>
    <edge id="E_H" from="E" to="H" priority="-1">
        <lane id="E_H_0" index="0" speed="13.89" length="85.00" width="7.00" shape="123.50,104.00 123.50,189.00"/>
    </edge>
    <edge id="F_I" from="F" to="I" priority="-1">
        <lane id="F_I_0" index="0" speed="13.89" length="87.50" width="7.00" shape="223.50,104.00 223.50,191.50"/>
    </edge>
    <edge id="G_H" from="G" to="H" priority="-1">
        <lane id="G_H_0" index="0" speed="13.89" length="82.00" width="7.00" shape="27.00,196.50 109.00,196.50"/>
    </edge>
    <edge id="H_I" from="H" to="I" priority="-1">
        <lane id="H_I_0" index="0" speed="13.89" length="87.50" width="7.00" shape="131.00,196.50 218.50,196.50"/>
    </edge>
    <edge id="H_I_parking" from="H_parking" to="H" priority="-1">
        <lane id="H_I_parking_0" index="0" speed="5.00" length="16.00" width="7.00" shape="116.50,220.00 116.50,204.00"/>
    </edge>

    <junction id="A" type="priority" x="20.00" y="0.00" incLanes="A_B_parking_0" intLanes=":A_0_0 :A_1_0" shape="20.00,4.00 27.00,4.00 27.44,1.78 28.00,1.00 28.78,0.44 29.78,0.11 31.00,0.00 31.00,-7.00 16.00,-7.00 16.00,0.00 18.22,0.44 19.00,1.00 19.56,1.78 19.89,2.78">
        <request index="0" response="00" foes="00" cont="0"/>
        <request index="1" response="00" foes="00" cont="0"/>
    </junction>
    <junction id="A_parking" type="dead_end" x="0.00" y="0.00" incLanes="" intLanes="" shape="0.00,0.00 0.00,-7.00"/>
    <junction id="B" type="priority" x="120.00" y="0.00" incLanes="A_B_0" intLanes=":B_0_0 :B_1_0" shape="120.00,4.00 127.00,4.00 127.44,1.78 128.00,1.00 128.78,0.44 129.78,0.11 131.00,0.00 131.00,-7.00 116.00,-7.00 116.00,0.00 118.22,0.44 119.00,1.00 119.56,1.78 119.89,2.78">
        <request index="0" response="00" foes="00" cont="0"/>
        <request index="1" response="00" foes="00" cont="0"/>
    </junction>
    <junction id="C" type="priority" x="220.00" y="0.00" incLanes="B_C_0" intLanes=":C_0_0" shape="220.00,0.00 227.00,0.00 226.81,-2.14 226.22,-3.89 225.25,-5.25 223.89,-6.22 222.14,-6.81 220.00,-7.00">
        <request index="0" response="0" foes="0" cont="0"/>
    </junction>
    <junction id="D" type="priority" x="20.00" y="100.00" incLanes="A_D_0 D_G_parking_0" intLanes=":D_0_0 :D_1_0 :D_2_0 :D_4_0" shape="20.00,104.00 27.00,104.00 27.44,101.78 28.00,101.00 28.78,100.44 29.78,100.11 31.00,100.00 31.00,93.00 28.78,92.56 28.00,92.00 27.44,91.22 27.11,90.22 27.00,89.00 20.00,89.00 19.56,91.22 19.00,92.00 18.22,92.56 17.22,92.89 16.00,93.00 16.00,100.00 18.22,100.44 19.00,101.00 19.56,101.78 19.89,102.78">
        <request index="0" response="0000" foes="0100" cont="0"/>
        <request index="1" response="0000" foes="1100" cont="0"/>
        <request index="2" response="0011" foes="0011" cont="0"/>
        <request index="3" response="0010" foes="0010" cont="1"/>
    </junction>
    <junction id="D_parking" type="dead_end" x="0.00" y="100.00" incLanes="" intLanes="" shape="0.00,100.00 0.00,93.00"/>
    <junction id="E" type="priority" x="120.00" y="100.00" incLanes="B_E_0 D_E_0" intLanes=":E_0_0 :E_1_0 :E_2_0 :E_4_0" shape="120.00,104.00 127.00,104.00 127.44,101.78 128.00,101.00 128.78,100.44 129.78,100.11 131.00,100.00 131.00,93.00 128.78,92.56 128.00,92.00 127.44,91.22 127.11,90.22 127.00,89.00 120.00,89.00 119.56,91.22 119.00,92.00 118.22,92.56 117.22,92.89 116.00,93.00 116.00,100.00 118.22,100.44 119.00,101.00 119.56,101.78 119.89,102.78">
        <request index="0" response="0000" foes="0100" cont="0"/>
        <request index="1" response="0000" foes="1100" cont="0"/>
        <request index="2" response="0011" foes="0011" cont="0"/>
        <request index="3" response="0010" foes="0010" cont="1"/>
    </junction>
    <junction id="F" type="priority" x="220.00" y="100.00" incLanes="C_F_0 E_F_0" intLanes=":F_0_0 :F_2_0" shape="220.00,104.00 227.00,104.00 227.00,89.00 220.00,89.00 219.56,91.22 219.00,92.00 218.22,92.56 217.22,92.89 216.00,93.00 216.00,100.00 218.22,100.44 219.00,101.00 219.56,101.78 219.89,102.78">
        <request index="0" response="00" foes="10" cont="0"/>
        <request index="1" response="01" foes="01" cont="1"/>
    </junction>
    <junction id="G" type="priority" x="20.00" y="200.00" incLanes="D_G_0" intLanes=":G_0_0" shape="27.00,200.00 27.00,193.00 20.00,193.00 20.19,195.14 20.78,196.89 21.75,198.25 23.11,199.22 24.86,199.81">
        <request index="0" response="0" foes="0" cont="0"/>
    </junction>
    <junction id="H" type="priority" x="120.00" y="200.00" incLanes="H_I_parking_0 E_H_0 G_H_0" intLanes=":H_3_0 :H_1_0 :H_2_0" shape="113.00,204.00 120.00,204.00 121.22,201.78 122.75,201.00 124.89,200.44 127.64,200.11 131.00,200.00 131.00,193.00 128.78,192.56 128.00,192.00 127.44,191.22 127.11,190.22 127.00,189.00 120.00,189.00 118.78,191.22 117.25,192.00 115.11,192.56 112.36,192.89 109.00,193.00 109.00,200.00 111.22,200.44 112.00,201.00 112.56,201.78 112.89,202.78">
        <request index="0" response="010" foes="110" cont="1"/>
        <request index="1" response="000" foes="101" cont="0"/>
        <request index="2" response="011" foes="011" cont="0"/>
    </junction>
    <junction id="H_parking" type="dead_end" x="120.00" y="220.00" incLanes="" intLanes="" shape="120.00,220.00 113.00,220.00"/>
    <junction id="I" type="dead_end" x="220.00" y="200.00" incLanes="F_I_0 H_I_0" intLanes="" shape="227.00,191.50 220.00,191.50 219.83,192.33 219.62,192.62 219.33,192.83 218.96,192.96 218.50,193.00 218.50,200.00 221.10,199.76 223.22,199.06 224.88,197.88 226.06,196.22 226.76,194.10"/>

    <junction id=":D_4_0" type="internal" x="19.85" y="97.31" incLanes=":D_3_0 A_D_0" intLanes=":D_1_0"/>
    <junction id=":E_4_0" type="internal" x="119.85" y="97.31" incLanes=":E_3_0 B_E_0" intLanes=":E_1_0"/>
    <junction id=":F_2_0" type="internal" x="219.85" y="97.31" incLanes=":F_1_0 C_F_0" intLanes=":F_0_0"/>
    <junction id=":H_3_0" type="internal" x="123.11" y="197.45" incLanes=":H_0_0 E_H_0" intLanes=":H_1_0 :H_2_0"/>

    <connection from="A_B" to="B_C" fromLane="0" toLane="0" via=":B_0_0" dir="s" state="M"/>
    <connection from="A_B" to="B_E" fromLane="0" toLane="0" via=":B_1_0" dir="l" state="M"/>
    <connection from="A_B_parking" to="A_B" fromLane="0" toLane="0" via=":A_0_0" dir="s" state="M"/>
    <connection from="A_B_parking" to="A_D" fromLane="0" toLane="0" via=":A_1_0" dir="l" state="M"/>
    <connection from="A_D" to="D_E" fromLane="0" toLane="0" via=":D_0_0" dir="r" state="M"/>
    <connection from="A_D" to="D_G" fromLane="0" toLane="0" via=":D_1_0" dir="s" state="M"/>
    <connection from="B_C" to="C_F" fromLane="0" toLane="0" via=":C_0_0" dir="l" state="M"/>
    <connection from="B_E" to="E_F" fromLane="0" toLane="0" via=":E_0_0" dir="r" state="M"/>
    <connection from="B_E" to="E_H" fromLane="0" toLane="0" via=":E_1_0" dir="s" state="M"/>
    <connection from="C_F" to="F_I" fromLane="0" toLane="0" via=":F_0_0" dir="s" state="M"/>
    <connection from="D_E" to="E_F" fromLane="0" toLane="0" via=":E_2_0" dir="s" state="m"/>
    <connection from="D_E" to="E_H" fromLane="0" toLane="0" via=":E_3_0" dir="l" state="m"/>
    <connection from="D_G" to="G_H" fromLane="0" toLane="0" via=":G_0_0" dir="r" state="M"/>
    <connection from="D_G_parking" to="D_E" fromLane="0" toLane="0" via=":D_2_0" dir="s" state="m"/>
    <connection from="D_G_parking" to="D_G" fromLane="0" toLane="0" via=":D_3_0" dir="l" state="m"/>
    <connection from="E_F" to="F_I" fromLane="0" toLane="0" via=":F_1_0" dir="l" state="m"/>
    <connection from="E_H" to="H_I" fromLane="0" toLane="0" via=":H_1_0" dir="r" state="M"/>
    <connection from="G_H" to="H_I" fromLane="0" toLane="0" via=":H_2_0" dir="s" state="m"/>
    <connection from="H_I_parking" to="H_I" fromLane="0" toLane="0" via=":H_0_0" dir="l" state="m"/>

    <connection from=":A_0" to="A_B" fromLane="0" toLane="0" dir="s" state="M"/>
    <connection from=":A_1" to="A_D" fromLane="0" toLane="0" dir="l" state="M"/>
    <connection from=":B_0" to="B_C" fromLane="0" toLane="0" dir="s" state="M"/>
    <connection from=":B_1" to="B_E" fromLane="0" toLane="0" dir="l" state="M"/>
    <connection from=":C_0" to="C_F" fromLane="0" toLane="0" dir="l" state="M"/>
    <connection from=":D_0" to="D_E" fromLane="0" toLane="0" dir="r" state="M"/>
    <connection from=":D_1" to="D_G" fromLane="0" toLane="0" dir="s" state="M"/>
    <connection from=":D_2" to="D_E" fromLane="0" toLane="0" dir="s" state="M"/>
    <connection from=":D_3" to="D_G" fromLane="0" toLane="0" via=":D_4_0" dir="l" state="m"/>
    <connection from=":D_4" to="D_G" fromLane="0" toLane="0" dir="l" state="M"/>
    <connection from=":E_0" to="E_F" fromLane="0" toLane="0" dir="r" state="M"/>
    <connection from=":E_1" to="E_H" fromLane="0" toLane="0" dir="s" state="M"/>
    <connection from=":E_2" to="E_F" fromLane="0" toLane="0" dir="s" state="M"/>
    <connection from=":E_3" to="E_H" fromLane="0" toLane="0" via=":E_4_0" dir="l" state="m"/>
    <connection from=":E_4" to="E_H" fromLane="0" toLane="0" dir="l" state="M"/>
    <connection from=":F_0" to="F_I" fromLane="0" toLane="0" dir="s" state="M"/>
    <connection from=":F_1" to="F_I" fromLane="0" toLane="0" via=":F_2_0" dir="l" state="m"/>
    <connection from=":F_2" to="F_I" fromLane="0" toLane="0" dir="l" state="M"/>
    <connection from=":G_0" to="G_H" fromLane="0" toLane="0" dir="r" state="M"/>
    <connection from=":H_0" to="H_I" fromLane="0" toLane="0" via=":H_3_0" dir="l" state="m"/>
    <connection from=":H_3" to="H_I" fromLane="0" toLane="0" dir="l" state="M"/>
    <connection from=":H_1" to="H_I" fromLane="0" toLane="0" dir="r" state="M"/>
    <connection from=":H_2" to="H_I" fromLane="0" toLane="0" dir="s" state="M"/>

</net>
